CLR
  CCTOOLS-0821261018

 74 77  0  0  1  0  0  0  0  0999 V2000
   -4.5870    1.2700   -0.8600 C   0  0  0  0  0
   -5.8980    1.5380   -0.1180 C   0  0  0  0  0
   -6.5920    0.2110    0.1950 C   0  0  0  0  0
   -5.7200   -0.6110    1.1480 C   0  0  0  0  0
   -4.3430   -0.7670    0.5240 C   0  0  0  0  0
   -3.8380   -1.9620    0.4380 C   0  0  0  0  0
   -2.4920   -2.2400   -0.1640 C   0  0  0  0  0
   -1.6100   -0.9950   -0.0270 C   0  0  0  0  0
   -2.3420    0.1850   -0.6810 C   0  0  0  0  0
   -3.6450    0.4720    0.0460 C   0  0  0  0  0
   -1.4790    1.4440   -0.7070 C   0  0  0  0  0
   -0.1140    1.1860   -1.3630 C   0  0  0  0  0
    0.5520    0.0680   -0.5840 C   0  0  0  0  0
   -0.3120   -1.2060   -0.7860 C   0  0  0  0  0
    0.6120   -2.2980   -0.2350 C   0  0  0  0  0
    2.0040   -1.8890   -0.7900 C   0  0  0  0  0
    1.9340   -0.3660   -1.0650 C   0  0  0  0  0
    0.6040    0.4300    0.9020 C   0  0  0  0  0
   -3.3150    1.3330    1.2660 C   0  0  0  0  0
    3.0230    0.3650   -0.2770 C   0  0  0  0  0
    2.9650    1.8610   -0.5950 C   0  0  0  0  0
    4.3940   -0.1870   -0.6720 C   0  0  0  0  0
    5.4730    0.4550    0.2040 C   0  0  0  0  0
    6.8440   -0.0970   -0.1900 C   0  0  0  0  0
    7.9230    0.5450    0.6850 C   0  0  0  0  0
    7.7190    0.1190    2.1400 C   0  0  0  0  0
    9.3040    0.0880    0.2090 C   0  0  0  0  0
   -7.8570    0.4690    0.8090 O   0  0  0  0  0
   -4.7910    0.6990   -1.7650 H   0  0  0  0  0
   -4.1190    2.2180   -1.1250 H   0  0  0  0  0
   -5.6870    2.0650    0.8130 H   0  0  0  0  0
   -6.5490    2.1500   -0.7410 H   0  0  0  0  0
   -6.7440   -0.3460   -0.7300 H   0  0  0  0  0
   -5.6330   -0.0940    2.1040 H   0  0  0  0  0
   -6.1670   -1.5930    1.3000 H   0  0  0  0  0
   -4.4130   -2.7930    0.8190 H   0  0  0  0  0
   -2.0250   -3.0760    0.3570 H   0  0  0  0  0
   -2.6090   -2.4890   -1.2190 H   0  0  0  0  0
   -1.4170   -0.7830    1.0250 H   0  0  0  0  0
   -2.5750   -0.0830   -1.7110 H   0  0  0  0  0
   -2.0000    2.2210   -1.2670 H   0  0  0  0  0
   -1.3220    1.7880    0.3150 H   0  0  0  0  0
   -0.2520    0.8830   -2.4010 H   0  0  0  0  0
    0.4980    2.0870   -1.3160 H   0  0  0  0  0
   -0.5140   -1.3640   -1.8450 H   0  0  0  0  0
    0.6130   -2.2890    0.8550 H   0  0  0  0  0
    0.3190   -3.2780   -0.6130 H   0  0  0  0  0
    2.7780   -2.1010   -0.0530 H   0  0  0  0  0
    2.2100   -2.4270   -1.7160 H   0  0  0  0  0
    2.0410   -0.1690   -2.1310 H   0  0  0  0  0
   -0.4090    0.5900    1.2720 H   0  0  0  0  0
    1.0710   -0.3820    1.4580 H   0  0  0  0  0
    1.1870    1.3420    1.0330 H   0  0  0  0  0
   -4.2340    1.5750    1.8000 H   0  0  0  0  0
   -2.6440    0.7850    1.9280 H   0  0  0  0  0
   -2.8310    2.2540    0.9410 H   0  0  0  0  0
    2.8630    0.2140    0.7900 H   0  0  0  0  0
    3.0600    2.0080   -1.6700 H   0  0  0  0  0
    2.0120    2.2670   -0.2550 H   0  0  0  0  0
    3.7800    2.3720   -0.0840 H   0  0  0  0  0
    4.4060   -1.2670   -0.5290 H   0  0  0  0  0
    4.5910    0.0440   -1.7190 H   0  0  0  0  0
    5.4610    1.5360    0.0610 H   0  0  0  0  0
    5.2760    0.2250    1.2510 H   0  0  0  0  0
    6.8560   -1.1770   -0.0480 H   0  0  0  0  0
    7.0420    0.1330   -1.2370 H   0  0  0  0  0
    7.8530    1.6300    0.6100 H   0  0  0  0  0
    6.7350    0.4450    2.4790 H   0  0  0  0  0
    7.7880   -0.9660    2.2150 H   0  0  0  0  0
    8.4870    0.5770    2.7640 H   0  0  0  0  0
    9.4490    0.3910   -0.8280 H   0  0  0  0  0
   10.0720    0.5450    0.8330 H   0  0  0  0  0
    9.3730   -0.9970    0.2840 H   0  0  0  0  0
   -8.3540   -0.3290    1.0350 H   0  0  0  0  0
  1  2  1  0  0  0
  1 10  1  0  0  0
  1 29  1  0  0  0
  1 30  1  0  0  0
  2  3  1  0  0  0
  2 31  1  0  0  0
  2 32  1  0  0  0
  3  4  1  0  0  0
  3 28  1  0  0  0
  3 33  1  0  0  0
  4  5  1  0  0  0
  4 34  1  0  0  0
  4 35  1  0  0  0
  5  6  2  0  0  0
  5 10  1  0  0  0
  6  7  1  0  0  0
  6 36  1  0  0  0
  7  8  1  0  0  0
  7 37  1  0  0  0
  7 38  1  0  0  0
  8  9  1  0  0  0
  8 14  1  0  0  0
  8 39  1  0  0  0
  9 10  1  0  0  0
  9 11  1  0  0  0
  9 40  1  0  0  0
 10 19  1  0  0  0
 11 12  1  0  0  0
 11 41  1  0  0  0
 11 42  1  0  0  0
 12 13  1  0  0  0
 12 43  1  0  0  0
 12 44  1  0  0  0
 13 14  1  0  0  0
 13 17  1  0  0  0
 13 18  1  0  0  0
 14 15  1  0  0  0
 14 45  1  0  0  0
 15 16  1  0  0  0
 15 46  1  0  0  0
 15 47  1  0  0  0
 16 17  1  0  0  0
 16 48  1  0  0  0
 16 49  1  0  0  0
 17 20  1  0  0  0
 17 50  1  0  0  0
 18 51  1  0  0  0
 18 52  1  0  0  0
 18 53  1  0  0  0
 19 54  1  0  0  0
 19 55  1  0  0  0
 19 56  1  0  0  0
 20 21  1  0  0  0
 20 22  1  0  0  0
 20 57  1  0  0  0
 21 58  1  0  0  0
 21 59  1  0  0  0
 21 60  1  0  0  0
 22 23  1  0  0  0
 22 61  1  0  0  0
 22 62  1  0  0  0
 23 24  1  0  0  0
 23 63  1  0  0  0
 23 64  1  0  0  0
 24 25  1  0  0  0
 24 65  1  0  0  0
 24 66  1  0  0  0
 25 26  1  0  0  0
 25 27  1  0  0  0
 25 67  1  0  0  0
 26 68  1  0  0  0
 26 69  1  0  0  0
 26 70  1  0  0  0
 27 71  1  0  0  0
 27 72  1  0  0  0
 27 73  1  0  0  0
 28 74  1  0  0  0
M  END
$$$$
